Circuit: * C:\Users\Matteo\Desktop\eclipse workspace\ltspice2circuitikz\resources\Test3 - Ponte Diodi.asc

c1: Increased Cpar to 3e-06
Direct Newton iteration for .op point succeeded.

Date: Tue Jun 20 18:25:11 2023
Total elapsed time: 0.073 seconds.

tnom = 27
temp = 27
method = modified trap
totiter = 2100
traniter = 2088
tranpoints = 1045
accept = 1045
rejected = 0
matrix size = 8
fillins = 5
solver = Normal
Avg thread counts: 1.5/1.9/1.9/1.5
Matrix Compiler1: 590 bytes object code size  0.2/0.2/[0.1]
Matrix Compiler2: 656 bytes object code size  0.1/0.1/[0.1]

